title: Marco Nanni # Your name (or website title) here
logo: "images/linkedinprofile.JPG?raw=true" # Your photo (or logo) here
description: > # Your text below (remove <br> elements if you don't need line breaks)
  I'm an Aerospace Graduate student at Purdue University, and Research Assistant at Herrick Lab
  <br><br>
  Thesis: Resilience Assessment of the Thermal Management System of the Aerospike Rocket Engine
  <br><br>
  Skills: MATLAB/Simulink, C, C++, Python, NPSS, CAD, ANSYS Fluent, ANSYS Mechanical
  <br><br>
  <a href="https://www.linkedin.com/in/marco-nanni-663180252/">View My LinkedIn Profile</a>

remote_theme: pages-themes/minimal@v0.2.0
plugins:
- jekyll-remote-theme

google_analytics: UA-000000-0 # Your Google Analytics tracking ID here

# Custom CSS for Scrollable Left Column
custom_css: |
  .wrapper {
      display: flex;
  }

  .left-column {
      width: 250px; /* Adjust the width to fit your needs */
      max-height: 100vh; /* Ensures the column doesn't exceed the viewport height */
      overflow-y: auto; /* Adds a scrollbar if the content exceeds the height */
      position: fixed; /* Fixes the column in place while scrolling */
  }

  .right-column {
      margin-left: 260px; /* Adjust based on the left column's width */
      padding: 20px;
      overflow-y: auto; /* Allows scrolling if content is long */
  }

# This will ensure the CSS is properly applied
defaults:
  -
    scope:
      path: ""
      type: "pages"
    values:
      layout: "default"
      css: custom_css
